clear all; close all; 

%=================================================================
% OBJECTIVE
%   Driver for series of functions that allows you to regrid GEOS-
%   Chem output to MITgcm and vice versa. 
%
% NOTES
%   (01) Currently assumes GEOS-Chem output is on a 4x5 global grid.
%   (02) Currently assumes MITgcm output is on a LLC90 grid.
%   (03) You need a copy of Gael Forget's gcmfaces package and Seb
%        Eastham's BPCHFunctions_v2 package.
%
%        gcmfaces available here:
%        /home/geos_harvard/helen/MATLAB/BPCHFunctions_v2/
%
%        BPCHFunctions_v2 available here:
%        http://wiki.seas.harvard.edu/geos-chem/index.php/Matlab_software_tools_for_use_with_GEOS-Chem
%    
%
% REVISION HISTORY
%   25 May 2015 - H. Amos - v1.0 created. 
%
% EXAMPLES
%   Coming...
%
% Helen M. Amos (hamos@hsph.harvard.edu)
%=================================================================

%-----------------------------------------------------------------
% Read GEOS-Chem from bpch
%-----------------------------------------------------------------

addpath('/home/geos_harvard/helen/MATLAB/BPCHFunctions_v2/')

% path to Carey's deposition data
GC_path = '/home/clf/Geos/GEOS-Chem.v9-01-03_wPAHs/28_0422_MERRAseas/2010/'

% read monthly total PCB deposition (units?)
%   --> 2D field
%   --> sum of dry + wet deposition
%   --> dimensions of output are [longitude latitude time]
%
gasdep_latlon = readBPCHSingle( [GC_path '2010.bpch'],... 
                                'C_POP_DEPO',...
                                'T_GasDep',...
                                [GC_path 'tracerinfo.dat'],...
                                [GC_path 'diaginfo.dat'],...
                                true, false );
